@<TRIPOS>MOLECULE
benzene
   12    12     1     0     0
SMALL
No Charge or Current Charge


@<TRIPOS>ATOM
      1 C1          1.8850   -1.0380   -0.1090 ca        1 R0_      -0.1301
      2 C2          0.8180   -0.4410    0.5630 ca        1 R0_      -0.1301
      3 C3          2.9350   -1.6040    0.6140 ca        1 R0_      -0.1301
      4 C4          0.8010   -0.4100    1.9570 ca        1 R0_      -0.1301
      5 C5          2.9180   -1.5730    2.0080 ca        1 R0_      -0.1301
      6 C6          1.8510   -0.9770    2.6800 ca        1 R0_      -0.1301
      7 H1          1.8980   -1.0610   -1.1950 ha        1 R0_       0.1301
      8 H2          0.0000    0.0000   -0.0000 ha        1 R0_       0.1301
      9 H3          3.7660   -2.0680    0.0910 ha        1 R0_       0.1301
     10 H4         -0.0300    0.0540    2.4800 ha        1 R0_       0.1301
     11 H5          3.7360   -2.0140    2.5710 ha        1 R0_       0.1301
     12 H6          1.8380   -0.9530    3.7660 ha        1 R0_       0.1301
@<TRIPOS>BOND
     1    1    2 ar  
     2    1    3 ar  
     3    1    7 1   
     4    2    4 ar  
     5    2    8 1   
     6    3    5 ar  
     7    3    9 1   
     8    4    6 ar  
     9    4   10 1   
    10    5    6 ar  
    11    5   11 1   
    12    6   12 1   
@<TRIPOS>SUBSTRUCTURE
     1 R0_         1 TEMP              0 ****  ****    0 ROOT
