@<TRIPOS>MOLECULE
toluene
   15    15     1     0     0
SMALL
No Charge or Current Charge


@<TRIPOS>ATOM
      1 C1          1.8850   -1.0380   -0.1090 ca        1 R0_      -0.1347
      2 C2          0.8180   -0.4410    0.5630 ca        1 R0_      -0.1267
      3 C3          2.9350   -1.6040    0.6140 ca        1 R0_      -0.1267
      4 C4          0.8010   -0.4100    1.9570 ca        1 R0_      -0.1309
      5 C5          2.9180   -1.5730    2.0080 ca        1 R0_      -0.1309
      6 C6          1.8510   -0.9770    2.6800 ca        1 R0_      -0.0676
      7 C7          1.8330   -0.9440    4.1710 c3        1 R0_      -0.0605
      8 H1          1.8980   -1.0610   -1.1950 ha        1 R0_       0.1299
      9 H2          0.0000    0.0000   -0.0000 ha        1 R0_       0.1297
     10 H3          3.7650   -2.0680    0.0910 ha        1 R0_       0.1297
     11 H4         -0.0350    0.0570    2.4720 ha        1 R0_       0.1301
     12 H5          3.7400   -2.0170    2.5630 ha        1 R0_       0.1301
     13 H6          2.7360   -0.4520    4.5530 hc        1 R0_       0.0428
     14 H7          0.9550   -0.4020    4.5470 hc        1 R0_       0.0428
     15 H8          1.7840   -1.9570    4.5910 hc        1 R0_       0.0428
@<TRIPOS>BOND
     1    1    2 ar  
     2    1    3 ar  
     3    1    8 1   
     4    2    4 ar  
     5    2    9 1   
     6    3    5 ar  
     7    3   10 1   
     8    4    6 ar  
     9    4   11 1   
    10    5    6 ar  
    11    5   12 1   
    12    6    7 1   
    13    7   13 1   
    14    7   14 1   
    15    7   15 1   
@<TRIPOS>SUBSTRUCTURE
     1 R0_         1 TEMP              0 ****  ****    0 ROOT
